/*--------------------------------*- C++ -*----------------------------------*\
| =========                 |                                                 |
| \\      /  F ield         | OpenFOAM: The Open Source CFD Toolbox           |
|  \\    /   O peration     | Version:  2.3.0                                 |
|   \\  /    A nd           | Web:      www.OpenFOAM.org                      |
|    \\/     M anipulation  |                                                 |
\*---------------------------------------------------------------------------*/
FoamFile
{
    version     2.0;
    format      ascii;
    class       dictionary;
    object      blockMeshDict;
}
// * * * * * * * * * * * * * * * * * * * * * * * * * * * * * * * * * * * * * //

convertToMeters 1;

vertices
(
    (  0.0  0.0     0.0) // bottom
    (  10.0 -1.0     0.0)
    (  10.0 1.0    0.0)
    (  0.0  0.0    0.0)
    (  0.0  0.0     10.0) // top
    (  10.0 -1.0     10.0)
    (  10.0 1.0    10.0)
    (  0.0  0.0    10.0)
);

blocks
(
	 hex (0 1 2 3 4 5 6 7) (50 1 50) simpleGrading (1 1 1)
);

edges
(
);

boundary
(

    ground
    {
        type wall;
        faces
        (
            (0 1 2 3)
        );
    }

    origin
    {
        type symmetry;
        faces
        (
            (0 3 7 4)
        );
    }
    wedge1
    {
        type wedge;
        faces
        (
            (0 1 5 4)
        );
    }
    
    wedge2
    {
        type wedge;
        faces
        (
            (3 2 6 7)
        );
    }

    outlet
    {
        type patch;
        faces
        (
            (1 2 6 5)
            (4 5 6 7)
        );
    }

);

mergePatchPairs
(
);

// ************************************************************************* //
